/*--------------------------------*- C++ -*----------------------------------*\
| =========                 |                                                 |
| \\      /  F ield         | OpenFOAM: The Open Source CFD Toolbox           |
|  \\    /   O peration     | Version:  plus                                  |
|   \\  /    A nd           | Web:      www.OpenFOAM.com                      |
|    \\/     M anipulation  |                                                 |
\*---------------------------------------------------------------------------*/
FoamFile
{
    version     2.0;
    format      ascii;
    class       dictionary;
    object      fvSolution;
}
// * * * * * * * * * * * * * * * * * * * * * * * * * * * * * * * * * * * * * //

// Enable region-coupled energy solution
//coupled on;

// Solver specification for region-coupled energy equation
solver
{
    he
    {
        solver          GAMG;
        agglomerator    assembledFaceAreaPair;
        smoother        symGaussSeidel;
        tolerance       1e-7;
        relTol          0;
    }
}

PIMPLE
{
    nOuterCorrectors 1;
}

// ************************************************************************* //
