/*--------------------------------*- C++ -*----------------------------------*\
| =========                 |                                                 |
| \\      /  F ield         | OpenFOAM: The Open Source CFD Toolbox           |
|  \\    /   O peration     | Version:  plus                                  |
|   \\  /    A nd           | Web:      www.OpenFOAM.com                      |
|    \\/     M anipulation  |                                                 |
\*---------------------------------------------------------------------------*/
FoamFile
{
    version         2.0;
    format          ascii;
    class           dictionary;
    object          blockMeshDict;
}
// * * * * * * * * * * * * * * * * * * * * * * * * * * * * * * * * * * * * * //

convertToMeters 1;

vertices
(
    ( 0 0 0)
    ( 0.89 0 0)
    ( 0.89 0.1 0)
    ( 0 0.1 0)
    ( 0 0 1.0)
    ( 0.89 0 1.0)
    ( 0.89 0.1 1.0)
    ( 0 0.1 1.0)

);

blocks
(
    hex (0 1 2 3 4 5 6 7) (100 10 112) simpleGrading (1 1 1)
);
edges
(
);

boundary
(
    left
    {
        type patch;
        faces
        (
            (0 4 7 3)
        );
    }    
    right
    {
        type patch;
        faces
        (
            (1 5 6 2)
        );
    }
    ground
    {
        type wall;
        faces
        (
            (0 1 2 3)
        );
    }
    top
    {
        type patch;
        faces
        (
            (4 5 6 7)
        );
    }
    sides
    {
        type patch;
        faces
        (
            (0 1 5 4)
            (3 2 6 7)
        );
    }
);

mergePatchPairs
(
);

// ************************************************************************* //

