/*--------------------------------*- C++ -*----------------------------------*\
| =========                 |                                                 |
| \\      /  F ield         | OpenFOAM: The Open Source CFD Toolbox           |
|  \\    /   O peration     | Version:  plus.master.MPPICInterFoam            |
|   \\  /    A nd           | Web:      www.OpenFOAM.com                      |
|    \\/     M anipulation  |                                                 |
\*---------------------------------------------------------------------------*/
FoamFile
{
    version     2.0;
    format      ascii;
    class       polyBoundaryMesh;
    location    "constant/polyMesh";
    object      boundary;
}
// * * * * * * * * * * * * * * * * * * * * * * * * * * * * * * * * * * * * * //

5
(
    base
    {
        type            wall;
        inGroups        1(wall);
        nFaces          0;
        startFace       34319;
    }
    outlet
    {
        type            patch;
        nFaces          749;
        startFace       34319;
    }
    walls
    {
        type            wall;
        inGroups        1(wall);
        nFaces          816;
        startFace       35068;
    }
    inlet
    {
        type            patch;
        nFaces          0;
        startFace       35884;
    }
    procBoundary3to2
    {
        type            processor;
        inGroups        1(processor);
        nFaces          729;
        startFace       35884;
        matchTolerance  0.0001;
        transform       unknown;
        myProcNo        3;
        neighbProcNo    2;
    }
)

// ************************************************************************* //
