/*--------------------------------*- C++ -*----------------------------------*\
| =========                 |                                                 |
| \\      /  F ield         | OpenFOAM: The Open Source CFD Toolbox           |
|  \\    /   O peration     | Version:  plus.master.MPPICInterFoam            |
|   \\  /    A nd           | Web:      www.OpenFOAM.com                      |
|    \\/     M anipulation  |                                                 |
\*---------------------------------------------------------------------------*/
FoamFile
{
    version     2.0;
    format      ascii;
    class       polyBoundaryMesh;
    location    "constant/polyMesh";
    object      boundary;
}
// * * * * * * * * * * * * * * * * * * * * * * * * * * * * * * * * * * * * * //

6
(
    base
    {
        type            wall;
        inGroups        1(wall);
        nFaces          0;
        startFace       34018;
    }
    outlet
    {
        type            patch;
        nFaces          0;
        startFace       34018;
    }
    walls
    {
        type            wall;
        inGroups        1(wall);
        nFaces          1378;
        startFace       34018;
    }
    inlet
    {
        type            patch;
        nFaces          0;
        startFace       35396;
    }
    procBoundary2to1
    {
        type            processor;
        inGroups        1(processor);
        nFaces          783;
        startFace       35396;
        matchTolerance  0.0001;
        transform       unknown;
        myProcNo        2;
        neighbProcNo    1;
    }
    procBoundary2to3
    {
        type            processor;
        inGroups        1(processor);
        nFaces          729;
        startFace       36179;
        matchTolerance  0.0001;
        transform       unknown;
        myProcNo        2;
        neighbProcNo    3;
    }
)

// ************************************************************************* //
