/*--------------------------------*- C++ -*----------------------------------*\
| =========                 |                                                 |
| \\      /  F ield         | OpenFOAM: The Open Source CFD Toolbox           |
|  \\    /   O peration     | Version:  plus.master.MPPICInterFoam            |
|   \\  /    A nd           | Web:      www.OpenFOAM.com                      |
|    \\/     M anipulation  |                                                 |
\*---------------------------------------------------------------------------*/
FoamFile
{
    version     2.0;
    format      ascii;
    class       polyBoundaryMesh;
    location    "constant/polyMesh";
    object      boundary;
}
// * * * * * * * * * * * * * * * * * * * * * * * * * * * * * * * * * * * * * //

5
(
    base
    {
        type            wall;
        inGroups        1(wall);
        nFaces          248;
        startFace       34155;
    }
    outlet
    {
        type            patch;
        nFaces          0;
        startFace       34403;
    }
    walls
    {
        type            wall;
        inGroups        1(wall);
        nFaces          1583;
        startFace       34403;
    }
    inlet
    {
        type            patch;
        nFaces          25;
        startFace       35986;
    }
    procBoundary0to1
    {
        type            processor;
        inGroups        1(processor);
        nFaces          760;
        startFace       36011;
        matchTolerance  0.0001;
        transform       unknown;
        myProcNo        0;
        neighbProcNo    1;
    }
)

// ************************************************************************* //
