/*--------------------------------*- C++ -*----------------------------------*\
| =========                 |                                                 |
| \\      /  F ield         | OpenFOAM: The Open Source CFD Toolbox           |
|  \\    /   O peration     | Version:  plus.master.MPPICInterFoam            |
|   \\  /    A nd           | Web:      www.OpenFOAM.com                      |
|    \\/     M anipulation  |                                                 |
\*---------------------------------------------------------------------------*/
FoamFile
{
    version     2.0;
    format      ascii;
    class       polyBoundaryMesh;
    location    "constant/polyMesh";
    object      boundary;
}
// * * * * * * * * * * * * * * * * * * * * * * * * * * * * * * * * * * * * * //

6
(
    base
    {
        type            wall;
        inGroups        1(wall);
        nFaces          0;
        startFace       34004;
    }
    outlet
    {
        type            patch;
        nFaces          0;
        startFace       34004;
    }
    walls
    {
        type            wall;
        inGroups        1(wall);
        nFaces          1375;
        startFace       34004;
    }
    inlet
    {
        type            patch;
        nFaces          0;
        startFace       35379;
    }
    procBoundary1to0
    {
        type            processor;
        inGroups        1(processor);
        nFaces          760;
        startFace       35379;
        matchTolerance  0.0001;
        transform       unknown;
        myProcNo        1;
        neighbProcNo    0;
    }
    procBoundary1to2
    {
        type            processor;
        inGroups        1(processor);
        nFaces          783;
        startFace       36139;
        matchTolerance  0.0001;
        transform       unknown;
        myProcNo        1;
        neighbProcNo    2;
    }
)

// ************************************************************************* //
